<?xml version="1.0" encoding="iso-8859-1"?>
<!--
<ReadMe>

This XML can be imported in Altium Designer 14 using WEBENCH Altium Connector Extension and simulated using WEBENCH Simulation Engine.
The WEBENCH Altium Connector provides an interface to the Texas Instruments WEBENCH Designer Tools as well as to open WEBENCH exported Designs directly from inside Altium Designer.
It also includes the advanced WEBENCH Simulation Engine which can be used for offline circuit simulations.
You will need a activation key from TI to be able to use the WEBENCH Simulation Engine.
You can download the WEBENCH extension from Altium Designer 14 Extensions.

Press Release:
http://www.altium.com/en/altium/press-center/press-releases/altium-designer-connects-ti%E2%80%99s-webench%C2%AE-power-supply-tools-fast

How to use:
http://blog.live.altium.com/#Blogs/ti-webench-release

Connector Details
http://techdocs.altium.com/display/ATPE/WEBENCH+Altium+Connector

User Manual:
http://techdocs.altium.com/sites/default/files/wiki_attachments/235782/WEBENCH_Altium_Connector_User_Guide_v1.2.pdf

</ReadMe>
-->
<schematic>
  <circuit>
    <text id="T_123456" position="400,-148" fontname="Times New Roman" fontsize="27" bold="0" color="#294901">
      <![CDATA[TPS54302 Startup Simulation
(Exported from WEBENCH® Designer)]]>
    </text>
    <text id="T_123456" position="945,-148" fontname="Arial" fontsize="13" bold="1" italic="1" color="#278190" border="1">
      <![CDATA[Title :    TPS54302DDCR 23.85V-24.15V to 3.30V @ 2A
-------------------------------------------------------------------------
WEBENCH® User ID                      :       18488519
WEBENCH® Design ID                  :       11
Date of WEBENCH® Export           :       30-Mar-2026
Time of WEBENCH® Export          :       9:18:54 AM
WEBENCH® Export Tool Version :       E1.67-X2.01]]>
    </text>
    <component type="Cbst" mirrored="0" typeid="57" nodematch="0" macrotype="2" position="1220,200" orientation="0">
      <parameter idx="0" encrypted="0">
        <![CDATA[
***********************************
*     Created by WB Importer      *
***********************************
.subckt MAIN_BLOCK_WB_TPS54202_BUCK_BLOCK_NEW_Cbst 5 4
Cbst 5 4 1.0E-7

.ends]]>
      </parameter>
      <image>
        <hotzone points="60,24,-60,-24"/>
        <shape type="line" width="Hair" color="#0000ff" points="-60,0,-40,0"/>
        <shape type="line" width="Hair" color="#0000ff" points="60,0,40,0"/>
        <shape type="line" width="1" color="#0000ff" points="-6,-24,-6,24"/>
        <shape type="line" width="1" color="#0000ff" points="40,0,6,0"/>
        <shape type="line" width="1" color="#0000ff" points="-6,0,-40,0"/>
        <shape type="line" width="1" color="#0000ff" points="6,-24,6,24"/>
        <legend text="100 nF" position="18,10" orientation="0" fontname="Arial" fontsize="12" bold="0" italic="0" color="#229922"/>
        <legend text="35.47 mOhm" position="18,26" orientation="0" fontname="Arial" fontsize="12" bold="0" italic="0" color="#229922"/>
        <legend text="" position="18,40" orientation="0" fontname="Arial" fontsize="12" bold="0" italic="0" color="#229922"/>
        <pin position="60,0" dir="0" length="0" text="4"/>
        <pin position="-60,0" dir="0" length="0" text="5"/>
        <label text="Cbst" position="1230,182" textroot=" " orientation="0" color="#228822"/>
      </image>
    </component>
    <component type="Cin" typeid="57" position="630,450" mirrored="0" nodematch="0" macrotype="2" orientation="0">
      <parameter idx="0" encrypted="0">
        <![CDATA[
***********************************
*     Created by WB Importer      *
***********************************
.SUBCKT MAIN_BLOCK_Cin_WB_CAP_POLARIZED 1 2
* C = 1.0E-5 F
* ESR = 0.002818 Ohm

Ccap 1 3 1.0E-5
Resr 3 2 0.002818

.ENDS]]>
      </parameter>
      <image>
        <hotzone points="-24,60,24,-60"/>
        <shape type="line" width="Hair" color="#0000ff" points="0,-60,0,-40"/>
        <shape type="line" width="Hair" color="#0000ff" points="0,60,0,40"/>
        <shape type="line" width="1" color="#0000ff" points="24,-6,-24,-6"/>
        <shape type="line" width="1" color="#0000ff" points="0,40,0,6"/>
        <shape type="line" width="1" color="#0000ff" points="0,-6,0,-40"/>
        <shape type="line" width="1" color="#0000ff" points="24,6,-24,6"/>
        <legend text="10 uF" position="8,18" orientation="0" fontname="Arial" fontsize="12" bold="0" italic="0" color="#229922"/>
        <legend text="2.818 mOhm" position="8,32" orientation="0" fontname="Arial" fontsize="12" bold="0" italic="0" color="#229922"/>
        <legend text="" position="8,48" orientation="0" fontname="Arial" fontsize="12" bold="0" italic="0" color="#229922"/>
        <pin position="0,60" dir="0" length="0" text="2"/>
        <pin position="0,-60" dir="0" length="0" text="1"/>
        <label text="Cin" position="636,428" textroot=" " orientation="0" color="#228822"/>
      </image>
    </component>
    <component type="Ground" typeid="2" position="1060,700" orientation="0" mirrored="0">
      <image>
        <label text="GND1" position="1060,700" textroot="GND1" orientation="0" color="#228822"/>
      </image>
    </component>
    <component type="ICout" typeid="34" position="2210,330" mirrored="0" nodematch="0" macrotype="2" orientation="0">
      <parameter idx="0" encrypted="0">
        <![CDATA[***********************************
*     Created by WB Importer      *
***********************************
.SUBCKT ICout 1 2 
V_Iprobe 1 2 0.0
.ENDS
]]>
      </parameter>
      <parameter idx="1" name="VALUE" value="0"/>
      <image>
        <hotzone points="6,-30,-6,30"/>
        <shape type="line" width="Hair" color="#0000ff" points="0,-30,0,30"/>
        <shape type="line" width="1" color="#0000ff" points="4,-6,-4,-6"/>
        <shape type="line" width="1" color="#0000ff" points="-4,-6,0,4"/>
        <shape type="line" width="1" color="#0000ff" points="0,4,4,-6"/>
        <pin position="0,-30" dir="0" length="0" text="1"/>
        <pin position="0,30" dir="0" length="0" text="2"/>
        <label text="ICout" position="2210,330" textroot=" " orientation="0" color="#228822"/>
      </image>
    </component>
    <component type="IIC" typeid="34" position="800,200" mirrored="0" nodematch="0" macrotype="2" orientation="0">
      <parameter idx="0" encrypted="0">
        <![CDATA[***********************************
*     Created by WB Importer      *
***********************************
.SUBCKT IIC 1 2 
V_Iprobe 1 2 0.0
.ENDS
]]>
      </parameter>
      <parameter idx="1" name="VALUE" value="0"/>
      <image>
        <hotzone points="-30,-6,30,6"/>
        <shape type="line" width="Hair" color="#0000ff" points="-30,0,30,0"/>
        <shape type="line" width="1" color="#0000ff" points="-6,-4,-6,4"/>
        <shape type="line" width="1" color="#0000ff" points="-6,4,4,0"/>
        <shape type="line" width="1" color="#0000ff" points="4,0,-6,-4"/>
        <pin position="-30,0" dir="0" length="0" text="1"/>
        <pin position="30,0" dir="0" length="0" text="2"/>
        <label text="IIC" position="800,200" textroot=" " orientation="0" color="#228822"/>
      </image>
    </component>
    <component type="IIn" typeid="34" position="230,200" mirrored="0" nodematch="0" macrotype="2" orientation="0">
      <parameter idx="0" encrypted="0">
        <![CDATA[***********************************
*     Created by WB Importer      *
***********************************
.SUBCKT IIn 1 2 
V_Iprobe 1 2 0.0
.ENDS
]]>
      </parameter>
      <parameter idx="1" name="VALUE" value="0"/>
      <image>
        <hotzone points="-30,-6,30,6"/>
        <shape type="line" width="Hair" color="#0000ff" points="-30,0,30,0"/>
        <shape type="line" width="1" color="#0000ff" points="-6,-4,-6,4"/>
        <shape type="line" width="1" color="#0000ff" points="-6,4,4,0"/>
        <shape type="line" width="1" color="#0000ff" points="4,0,-6,-4"/>
        <pin position="-30,0" dir="0" length="0" text="1"/>
        <pin position="30,0" dir="0" length="0" text="2"/>
        <label text="IIn" position="230,200" textroot=" " orientation="0" color="#228822"/>
      </image>
    </component>
    <component type="IInductor" typeid="34" position="1430,260" mirrored="0" nodematch="0" macrotype="2" orientation="0">
      <parameter idx="0" encrypted="0">
        <![CDATA[***********************************
*     Created by WB Importer      *
***********************************
.SUBCKT IInductor 1 2 
V_Iprobe 1 2 0.0
.ENDS
]]>
      </parameter>
      <parameter idx="1" name="VALUE" value="0"/>
      <image>
        <hotzone points="-30,-6,30,6"/>
        <shape type="line" width="Hair" color="#0000ff" points="-30,0,30,0"/>
        <shape type="line" width="1" color="#0000ff" points="-6,-4,-6,4"/>
        <shape type="line" width="1" color="#0000ff" points="-6,4,4,0"/>
        <shape type="line" width="1" color="#0000ff" points="4,0,-6,-4"/>
        <pin position="-30,0" dir="0" length="0" text="1"/>
        <pin position="30,0" dir="0" length="0" text="2"/>
        <label text="IInductor" position="1430,260" textroot=" " orientation="0" color="#228822"/>
      </image>
    </component>
    <component type="IOut" typeid="34" position="2500,260" mirrored="0" nodematch="0" macrotype="2" orientation="0">
      <parameter idx="0" encrypted="0">
        <![CDATA[***********************************
*     Created by WB Importer      *
***********************************
.SUBCKT IOut 1 2 
V_Iprobe 1 2 0.0
.ENDS
]]>
      </parameter>
      <parameter idx="1" name="VALUE" value="0"/>
      <image>
        <hotzone points="-30,-6,30,6"/>
        <shape type="line" width="Hair" color="#0000ff" points="-30,0,30,0"/>
        <shape type="line" width="1" color="#0000ff" points="-6,-4,-6,4"/>
        <shape type="line" width="1" color="#0000ff" points="-6,4,4,0"/>
        <shape type="line" width="1" color="#0000ff" points="4,0,-6,-4"/>
        <pin position="-30,0" dir="0" length="0" text="1"/>
        <pin position="30,0" dir="0" length="0" text="2"/>
        <label text="IOut" position="2500,260" textroot=" " orientation="0" color="#228822"/>
      </image>
    </component>
    <component type="L1" typeid="57" position="1570,260" mirrored="0" nodematch="0" macrotype="2" orientation="0">
      <parameter idx="0" encrypted="0">
        <![CDATA[
***********************************
*     Created by WB Importer      *
***********************************
.SUBCKT MAIN_BLOCK_L1_WB_INDUCTOR 1 2
*{ L = 1.0E-5 DCR = 0.031 }
* PARAMETERS: L INDUCTANCE IN HENRIES, DCR DC SERIES RESISTANCE IN OHMS

L1 2 3 1.0E-5
RDCR 3 1 0.031

.ENDS]]>
      </parameter>
      <image>
        <hotzone points="-60,-10,60,10"/>
        <shape type="line" width="Hair" color="#0000ff" points="40,0,60,0"/>
        <shape type="line" width="Hair" color="#0000ff" points="-40,0,-60,0"/>
        <legend text="10 uH" position="-30,8" orientation="0" fontname="Arial" fontsize="12" bold="0" italic="0" color="#229922"/>
        <legend text="31 mOhm" position="-30,22" orientation="0" fontname="Arial" fontsize="12" bold="0" italic="0" color="#229922"/>
        <shape type="arc" color="#0000ff" width="2" points="-40,-10,-20,10,90,90"/>
        <shape type="arc" color="#0000ff" width="2" points="-40,-10,-20,10,0,90"/>
        <shape type="arc" color="#0000ff" width="2" points="-20,-10,0,10,90,90"/>
        <shape type="arc" color="#0000ff" width="2" points="-20,-10,0,10,0,90"/>
        <shape type="arc" color="#0000ff" width="2" points="0,-10,20,10,90,90"/>
        <shape type="arc" color="#0000ff" width="2" points="0,-10,20,10,0,90"/>
        <shape type="arc" color="#0000ff" width="2" points="20,-10,40,10,90,90"/>
        <shape type="arc" color="#0000ff" width="2" points="20,-10,40,10,0,90"/>
        <pin position="-60,0" dir="0" length="0" text="1"/>
        <pin position="60,0" dir="0" length="0" text="2"/>
        <label text="L1" position="1536,230" textroot=" " orientation="0" color="#228822"/>
      </image>
    </component>
    <wire points="180,200,200,200" label=""/>
    <wire points="2540,260,2560,260" label=""/>
    <wire points="2540,700,2560,700" label=""/>
    <wire points="180,700,200,700" label=""/>
    <component type="Rfbb" mirrored="0" typeid="57" nodematch="0" macrotype="2" position="1870,580" orientation="0">
      <parameter idx="0" encrypted="0">
        <![CDATA[
***********************************
*     Created by WB Importer      *
***********************************
.subckt MAIN_BLOCK_WB_TPS54202_BUCK_BLOCK_NEW_Rfbb 3 0
Rfbb 3 0 22000.0

.ends]]>
      </parameter>
      <image>
        <hotzone points="-10,60,10,-60"/>
        <shape type="line" width="1" color="#0000ff" points="0,60,0,40"/>
        <shape type="line" width="1" color="#0000ff" points="0,40,-10,30"/>
        <shape type="line" width="1" color="#0000ff" points="-10,30,10,10"/>
        <shape type="line" width="1" color="#0000ff" points="10,10,-10,-10"/>
        <shape type="line" width="1" color="#0000ff" points="-10,-10,10,-30"/>
        <shape type="line" width="1" color="#0000ff" points="10,-30,0,-40"/>
        <shape type="line" width="1" color="#0000ff" points="0,-40,0,-60"/>
        <legend text="22 kOhm" position="10,-8" orientation="0" fontname="Arial" fontsize="12" bold="0" italic="0" color="#229922"/>
        <pin position="0,-60" dir="0" length="0" text="3"/>
        <pin position="0,60" dir="0" length="0" text="0"/>
        <label text="Rfbb" position="1888,550" textroot=" " orientation="0" color="#228822"/>
      </image>
    </component>
    <component type="Rfbt" mirrored="0" typeid="57" nodematch="0" macrotype="2" position="1870,360" orientation="0">
      <parameter idx="0" encrypted="0">
        <![CDATA[
***********************************
*     Created by WB Importer      *
***********************************
.subckt MAIN_BLOCK_WB_TPS54202_BUCK_BLOCK_NEW_Rfbt 6 3
Rfbt 6 3 100000.0

.ends]]>
      </parameter>
      <image>
        <hotzone points="-10,60,10,-60"/>
        <shape type="line" width="1" color="#0000ff" points="0,60,0,40"/>
        <shape type="line" width="1" color="#0000ff" points="0,40,-10,30"/>
        <shape type="line" width="1" color="#0000ff" points="-10,30,10,10"/>
        <shape type="line" width="1" color="#0000ff" points="10,10,-10,-10"/>
        <shape type="line" width="1" color="#0000ff" points="-10,-10,10,-30"/>
        <shape type="line" width="1" color="#0000ff" points="10,-30,0,-40"/>
        <shape type="line" width="1" color="#0000ff" points="0,-40,0,-60"/>
        <legend text="0.1 MOhm" position="10,-8" orientation="0" fontname="Arial" fontsize="12" bold="0" italic="0" color="#229922"/>
        <pin position="0,-60" dir="0" length="0" text="6"/>
        <pin position="0,60" dir="0" length="0" text="3"/>
        <label text="Rfbt" position="1888,330" textroot=" " orientation="0" color="#228822"/>
      </image>
    </component>
    <component type="U1_TPS54302DDCR" typeid="57" position="1010,280" mirrored="0" nodematch="0" macrotype="2" orientation="0">
      <parameter idx="0" encrypted="0">
        <![CDATA[***
*$
*U1_TPS54302DDCR
*****************************************************************************
* (C) Copyright 2013 Texas Instruments Incorporated. All rights reserved.
*****************************************************************************
** This model is designed as an aid for customers of Texas Instruments.
** TI and its licensors and suppliers make no warranties, either expressed
** or implied, with respect to this model, including the warranties of
** merchantability or fitness for a particular purpose. The model is
** provided solely on an "as is" basis. The entire risk as to its quality
** and performance is with the customer
*****************************************************************************
*
** Released by: WEBENCH(R) Design Center, Texas Instruments Inc.
* Part: U1_TPS54302DDCR
* Model Type: Transient
* Simulator: TINA
* Model Version: Final 1.00
*
*****************************************************************************
*
* Updates:
*
* Final 1.00
* Release to Web.
*
***************************************************************************
.SUBCKT MAIN_BLOCK_U1_WB_TPS54202DDC_ENCR GND PH VIN VSENSE EN BOOT PARAMS: STEADY_STATE=0
.include pspice://../MAIN_BLOCK.U1.WB_TPS54202DDC.enl
XCALL GND PH VIN VSENSE EN BOOT MAIN_BLOCK_U1_WB_TPS54202DDC PARAMS: STEADY_STATE=0 
.ENDS
]]>
      </parameter>
      <image>
        <hotzone points="-140,-160,140,160"/>
        <shape type="line" width="Hair" color="#0000ff" points="-100,120,100,120"/>
        <shape type="line" width="Hair" color="#0000ff" points="100,120,100,-120"/>
        <shape type="line" width="Hair" color="#0000ff" points="100,-120,-100,-120"/>
        <shape type="line" width="Hair" color="#0000ff" points="-100,-120,-100,120"/>
        <shape type="line" width="Hair" color="#0000ff" points="140,100,100,100"/>
        <shape type="line" width="Hair" color="#0000ff" points="140,-20,100,-20"/>
        <shape type="line" width="Hair" color="#0000ff" points="-140,-80,-100,-80"/>
        <shape type="line" width="Hair" color="#0000ff" points="140,60,100,60"/>
        <shape type="line" width="Hair" color="#0000ff" points="-140,-20,-100,-20"/>
        <shape type="line" width="Hair" color="#0000ff" points="140,-80,100,-80"/>
        <shape type="line" width="1" color="#ff0000" points="-1,-95,-2,-90"/>
        <shape type="line" width="1" color="#ff0000" points="-1,-97,-1,-97"/>
        <shape type="polygon" width="1" color="#ff0000" fill="#ff0000" points="-7,-99,-7,-93,-11,-93,-11,-92,-10,-91,-9,-89,-8,-88,-7,-88,-6,-89,-5,-88,-4,-86,-1,-84,0,-84,0,-86,1,-88,3,-89,4,-90,4,-93,3,-94,3,-96,1,-96,0,-94,2,-94,1,-92,0,-92,-1,-90,0,-90,0,-89,-1,-88,-3,-88,-4,-89,-3,-92,-5,-92,-4,-94,-3,-94,-3,-94,-2,-96,-4,-96,-4,-98,-4,-99"/>
        <legend text="TPS54302DDC" position="-44,-64" orientation="0" fontname="Arial" fontsize="10" bold="0" italic="0" color="4278190208"/>
        <pin position="140,100" dir="0" length="0" text="GND">
          <legend text="GND" position="90,90" orientation="0" fontname="Arial" fontsize="10" bold="0" italic="0" color="4286578688"/>
        </pin>
        <pin position="140,-20" dir="0" length="0" text="PH">
          <legend text="PH" position="100,-30" orientation="0" fontname="Arial" fontsize="10" bold="0" italic="0" color="4286578688"/>
        </pin>
        <pin position="-140,-80" dir="0" length="0" text="VIN">
          <legend text="VIN" position="-118,-90" orientation="0" fontname="Arial" fontsize="10" bold="0" italic="0" color="4286578688"/>
        </pin>
        <pin position="140,60" dir="0" length="0" text="VSENSE">
          <legend text="VSENSE" position="60,50" orientation="0" fontname="Arial" fontsize="10" bold="0" italic="0" color="4286578688"/>
        </pin>
        <pin position="-140,-20" dir="0" length="0" text="EN">
          <legend text="EN" position="-118,-30" orientation="0" fontname="Arial" fontsize="10" bold="0" italic="0" color="4286578688"/>
        </pin>
        <pin position="140,-80" dir="0" length="0" text="BOOT">
          <legend text="BOOT" position="80,-90" orientation="0" fontname="Arial" fontsize="10" bold="0" italic="0" color="4286578688"/>
        </pin>
        <label text="U1_TPS54302DDCR" position="870,100" textroot="U1_TPS54302DDCR" orientation="0" color="#228822"/>
      </image>
    </component>
    <component type="VIn" typeid="4" position="420,200" orientation="0" mirrored="0">
      <image>
        <label text="VIn" position="420,170" textroot="VIn" orientation="0" color="#228822"/>
      </image>
    </component>
    <component type="VOut" typeid="4" position="2050,260" orientation="0" mirrored="0">
      <image>
        <label text="VOut" position="2050,230" textroot="VOut" orientation="0" color="#228822"/>
      </image>
    </component>
    <component type="VSwitch" typeid="4" position="1350,260" orientation="0" mirrored="0">
      <image>
        <label text="VSwitch" position="1350,230" textroot="VSwitch" orientation="0" color="#228822"/>
      </image>
    </component>
    <component type="Cout" typeid="57" position="2210,460" mirrored="0" nodematch="0" macrotype="2" orientation="0">
      <parameter idx="0" encrypted="0">
        <![CDATA[
***********************************
*     Created by WB Importer      *
***********************************
.SUBCKT MAIN_BLOCK_Cout_WB_CAP_CERAMIC 2 4
*FAMILY = ANALOG
*FAMILY = ANALOG
R1 2 3 0.0015185
C1 3 4 7.8E-5 IC=0.0
R3 5 4 5; free space reduced by sqrt(dielectric constant)
R2 2 4 1.282051282051282E7
R4 3 26 337444.4444444445
R6 3 7 337.44444444444446
C5 7 1 2.34E-6 IC=0.0
R7 3 10 33.74444444444445
C6 10 1 2.34E-6 IC=0.0
R8 3 13 3.374444444444445
C7 13 1 2.34E-6 IC=0.0
C2 26 1 2.34E-6 IC=0.0
R9 3 28 33744.444444444445
C3 28 1 2.34E-6 IC=0.0
R10 3 29 3374.444444444445
C4 29 1 2.34E-6 IC=0.0
L8 1 5 15p
R24 1 5 0.0045555000000000005
L12 5 4 1n
.ENDS]]>
      </parameter>
      <image>
        <hotzone points="-24,60,24,-60"/>
        <shape type="line" width="Hair" color="#0000ff" points="0,-60,0,-40"/>
        <shape type="line" width="Hair" color="#0000ff" points="0,60,0,40"/>
        <shape type="line" width="1" color="#0000ff" points="24,-6,-24,-6"/>
        <shape type="line" width="1" color="#0000ff" points="0,40,0,6"/>
        <shape type="line" width="1" color="#0000ff" points="0,-6,0,-40"/>
        <shape type="line" width="1" color="#0000ff" points="24,6,-24,6"/>
        <legend text="47 uF" position="8,18" orientation="0" fontname="Arial" fontsize="12" bold="0" italic="0" color="#229922"/>
        <legend text="3.037 mOhm" position="8,32" orientation="0" fontname="Arial" fontsize="12" bold="0" italic="0" color="#229922"/>
        <legend text="qty=2" position="8,48" orientation="0" fontname="Arial" fontsize="12" bold="0" italic="0" color="#229922"/>
        <pin position="0,60" dir="0" length="0" text="4"/>
        <pin position="0,-60" dir="0" length="0" text="2"/>
        <label text="Cout" position="2216,438" textroot=" " orientation="0" color="#228822"/>
      </image>
    </component>
    <wire points="180,590,180,530" label=""/>
    <wire points="200,700,320,700" label=""/>
    <wire points="320,700,1760,700" label=""/>
    <wire points="630,700,630,510" label=""/>
    <wire points="630,390,630,200" label=""/>
    <wire points="770,200,260,200" label=""/>
    <wire points="870,200,830,200" label=""/>
    <wire points="1150,380,1220,380" label=""/>
    <wire points="1150,340,1320,340" label=""/>
    <wire points="1150,260,1160,260" label=""/>
    <wire points="1150,200,1170,200" label=""/>
    <wire points="1160,200,1170,200" label=""/>
    <wire points="1220,380,1220,700" label=""/>
    <wire points="1280,200,1290,200" label=""/>
    <wire points="1290,200,1290,260" label=""/>
    <wire points="1320,470,1870,470" label=""/>
    <wire points="1320,340,1320,470" label=""/>
    <wire points="1400,260,1160,260" label=""/>
    <wire points="1460,260,1510,260" label=""/>
    <wire points="1630,260,2050,260" label=""/>
    <wire points="1760,700,2050,700" label=""/>
    <wire points="1870,640,1870,700" label=""/>
    <wire points="1870,520,1870,420" label=""/>
    <wire points="1870,300,1870,260" label=""/>
    <wire points="2050,700,2540,700" label=""/>
    <wire points="2050,260,2470,260" label=""/>
    <wire points="2210,700,2210,520" label=""/>
    <wire points="2210,360,2210,400" label=""/>
    <wire points="2210,300,2210,260" label=""/>
    <wire points="2530,260,2560,260" label=""/>
    <wire points="2560,700,2560,660" label=""/>
    <wire points="180,700,180,590" label=""/>
    <wire points="180,200,180,220" label=""/>
    <wire points="180,620,180,640" label=""/>
    <component type="Vin_2" typeid="57" position="180,360" mirrored="0" nodematch="0" macrotype="2" orientation="0">
      <parameter idx="0" encrypted="0">
        <![CDATA[
***********************************
*     Created by WB Importer      *
***********************************
.SUBCKT INPUT_BLOCK_Vin_WB_STARTUP_VOLTAGE_SOURCE 1 2
Rsource 3 1 1m
Vin1 3 2 PULSE 0 24.0 10u 10u
.ENDS]]>
      </parameter>
      <image>
        <hotzone points="30,-60,-30,60"/>
        <shape type="line" width="Hair" color="#0000ff" points="0,60,0,30"/>
        <shape type="line" width="Hair" color="#0000ff" points="0,-60,0,-30"/>
        <shape type="line" width="Hair" color="#0000ff" points="20,-30,20,-40"/>
        <shape type="line" width="Hair" color="#0000ff" points="14,-34,26,-34"/>
        <shape type="line" width="Hair" color="#0000ff" points="14,34,26,34"/>
        <shape type="line" width="1" color="#0000ff" points="-22,10,-16,10"/>
        <shape type="line" width="1" color="#0000ff" points="-16,10,-14,-10"/>
        <shape type="line" width="1" color="#0000ff" points="-14,-10,22,-10"/>
        <shape type="ellipse" points="-30,30,30,-30" color="#0000ff" width="2"/>
        <pin position="0,-60" dir="0" length="0" text="1"/>
        <pin position="0,60" dir="0" length="0" text="2"/>
        <label text="Vin_2" position="210,330" textroot=" " orientation="0" color="#228822"/>
      </image>
    </component>
    <wire points="180,420,180,620" label=""/>
    <wire points="180,300,180,220" label=""/>
    <component type="ILoad" typeid="34" position="2560,370" mirrored="0" nodematch="0" macrotype="2" orientation="0">
      <parameter idx="0" encrypted="0">
        <![CDATA[***********************************
*     Created by WB Importer      *
***********************************
.SUBCKT ILoad 1 2 
V_Iprobe 1 2 0.0
.ENDS
]]>
      </parameter>
      <parameter idx="1" name="VALUE" value="0"/>
      <image>
        <hotzone points="6,-30,-6,30"/>
        <shape type="line" width="Hair" color="#0000ff" points="0,-30,0,30"/>
        <shape type="line" width="1" color="#0000ff" points="4,-6,-4,-6"/>
        <shape type="line" width="1" color="#0000ff" points="-4,-6,0,4"/>
        <shape type="line" width="1" color="#0000ff" points="0,4,4,-6"/>
        <pin position="0,-30" dir="0" length="0" text="1"/>
        <pin position="0,30" dir="0" length="0" text="2"/>
        <label text="ILoad" position="2560,370" textroot=" " orientation="0" color="#228822"/>
      </image>
    </component>
    <wire points="2560,260,2560,280" label=""/>
    <wire points="2560,680,2560,700" label=""/>
    <component type="Rload" mirrored="0" typeid="57" nodematch="0" macrotype="2" position="2560,560" orientation="0">
      <parameter idx="0" encrypted="0">
        <![CDATA[
***********************************
*     Created by WB Importer      *
***********************************
.subckt OUTPUT_BLOCK_WB_OUTPUT_BLOCK_STARTUP_PROBE_Rload 1 2
Rload 1 2 1.65

.ends]]>
      </parameter>
      <image>
        <hotzone points="-10,60,10,-60"/>
        <shape type="line" width="1" color="#0000ff" points="0,60,0,40"/>
        <shape type="line" width="1" color="#0000ff" points="0,40,-10,30"/>
        <shape type="line" width="1" color="#0000ff" points="-10,30,10,10"/>
        <shape type="line" width="1" color="#0000ff" points="10,10,-10,-10"/>
        <shape type="line" width="1" color="#0000ff" points="-10,-10,10,-30"/>
        <shape type="line" width="1" color="#0000ff" points="10,-30,0,-40"/>
        <shape type="line" width="1" color="#0000ff" points="0,-40,0,-60"/>
        <pin position="0,-60" dir="0" length="0" text="1"/>
        <pin position="0,60" dir="0" length="0" text="2"/>
        <label text="Rload" position="2578,530" textroot=" " orientation="0" color="#228822"/>
      </image>
    </component>
    <wire points="2560,680,2560,620" label=""/>
    <wire points="2560,440,2560,500" label=""/>
    <wire points="2560,440,2560,400" label=""/>
    <wire points="2560,280,2560,340" label=""/>
    <wire points="1730,450,1730,470" label=""/>
    <wire points="1730,260,1730,280" label=""/>
    <component type="Cff" mirrored="0" typeid="57" nodematch="0" macrotype="2" position="1730,380" orientation="0">
      <parameter idx="0" encrypted="0">
        <![CDATA[
***********************************
*     Created by WB Importer      *
***********************************
.subckt MAIN_BLOCK_WB_CFF_BLOCK_TPS543021_WB_CFF_BLOCK_TPS543021_Cff 2 1
Cff 2 1 8.2E-11

.ends]]>
      </parameter>
      <image>
        <hotzone points="-24,60,24,-60"/>
        <shape type="line" width="Hair" color="#0000ff" points="0,-60,0,-40"/>
        <shape type="line" width="Hair" color="#0000ff" points="0,60,0,40"/>
        <shape type="line" width="1" color="#0000ff" points="24,-6,-24,-6"/>
        <shape type="line" width="1" color="#0000ff" points="0,40,0,6"/>
        <shape type="line" width="1" color="#0000ff" points="0,-6,0,-40"/>
        <shape type="line" width="1" color="#0000ff" points="24,6,-24,6"/>
        <legend text="82 pF" position="8,18" orientation="0" fontname="Arial" fontsize="12" bold="0" italic="0" color="#229922"/>
        <legend text="" position="8,32" orientation="0" fontname="Arial" fontsize="12" bold="0" italic="0" color="#229922"/>
        <legend text="" position="8,48" orientation="0" fontname="Arial" fontsize="12" bold="0" italic="0" color="#229922"/>
        <pin position="0,60" dir="0" length="0" text="1"/>
        <pin position="0,-60" dir="0" length="0" text="2"/>
        <label text="Cff" position="1736,358" textroot=" " orientation="0" color="#228822"/>
      </image>
    </component>
    <wire points="1730,440,1730,450" label=""/>
    <wire points="1730,320,1730,280" label=""/>
  </circuit>
  <analysis>
    <altium_simulation>
      <parameter idx="0" name="TSTOP" value="6.3m" group=".TRAN"/>
      <parameter idx="1" name="RELTOL" value="1m" group=".TRAN"/>
      <parameter idx="2" name="KCLTOL" value="10n" group=".TRAN"/>
      <parameter idx="3" name="VABSTOL" value="10u" group=".TRAN"/>
      <parameter idx="4" name="LTERATIO" value="20" group=".TRAN"/>
      <parameter idx="5" name="TRES" value="8n" group=".TRAN"/>